data/nesta/nesta_case30_as__api.m
%%%%%%%%%%%%%%%%%%%%%%%%%%%%%%%%%%%%%%%%%%%%%%%%%%%%%%%%%%%%%%%%%%%%%%%%%%%
%%%%                                                                  %%%%%
%%%%      NICTA Energy System Test Case Archive (NESTA) - v0.1.5      %%%%%
%%%%            Optimal Power Flow - Active Power Increase            %%%%%
%%%%                       30 - October - 2014                        %%%%%
%%%%                                                                  %%%%%
%%%%%%%%%%%%%%%%%%%%%%%%%%%%%%%%%%%%%%%%%%%%%%%%%%%%%%%%%%%%%%%%%%%%%%%%%%%
function mpc = nesta_case30_as__api
mpc.version = '2';
mpc.baseMVA = 100.0;

%% area data
%	area	refbus
mpc.areas = [
	1	 1;
];

%% bus data
%	bus_i	type	Pd	Qd	Gs	Bs	area	Vm	Va	baseKV	zone	Vmax	Vmin
mpc.bus = [
	1	 3	 0.00	 0.00	 0.0	 0.0	 1	     1.0000	     0.0000	 135.0	 1	     1.0500	     0.9500;
	2	 2	 43.03	 12.70	 0.0	 0.0	 1	     1.0000	     0.0000	 135.0	 1	     1.1000	     0.9500;
	3	 1	 4.76	 1.20	 0.0	 0.0	 1	     1.0000	     0.0000	 135.0	 1	     1.0500	     0.9500;
	4	 1	 15.07	 1.60	 0.0	 0.0	 1	     1.0000	     0.0000	 135.0	 1	     1.0500	     0.9500;
	5	 1	 186.81	 19.00	 0.0	 0.0	 1	     1.0000	     0.0000	 135.0	 1	     1.0500	     0.9500;
	6	 1	 0.00	 0.00	 0.0	 0.0	 1	     1.0000	     0.0000	 135.0	 1	     1.0500	     0.9500;
	7	 1	 45.22	 10.90	 0.0	 0.0	 1	     1.0000	     0.0000	 135.0	 1	     1.0500	     0.9500;
	8	 1	 59.50	 30.00	 0.0	 0.0	 1	     1.0000	     0.0000	 135.0	 1	     1.0500	     0.9500;
	9	 1	 0.00	 0.00	 0.0	 0.0	 1	     1.0000	     0.0000	 135.0	 1	     1.0500	     0.9500;
	10	 1	 11.50	 2.00	 0.0	 5.26	 1	     1.0000	     0.0000	 135.0	 1	     1.0500	     0.9500;
	11	 1	 0.00	 0.00	 0.0	 0.0	 1	     1.0000	     0.0000	 135.0	 1	     1.0500	     0.9500;
	12	 1	 22.21	 7.50	 0.0	 0.0	 1	     1.0000	     0.0000	 135.0	 1	     1.0500	     0.9500;
	13	 2	 0.00	 0.00	 0.0	 0.0	 1	     1.0000	     0.0000	 135.0	 1	     1.1000	     0.9500;
	14	 1	 12.30	 1.60	 0.0	 0.0	 1	     1.0000	     0.0000	 135.0	 1	     1.0500	     0.9500;
	15	 1	 16.26	 2.50	 0.0	 0.0	 1	     1.0000	     0.0000	 135.0	 1	     1.0500	     0.9500;
	16	 1	 6.94	 1.80	 0.0	 0.0	 1	     1.0000	     0.0000	 135.0	 1	     1.0500	     0.9500;
	17	 1	 17.85	 5.80	 0.0	 0.0	 1	     1.0000	     0.0000	 135.0	 1	     1.0500	     0.9500;
	18	 1	 6.35	 0.90	 0.0	 0.0	 1	     1.0000	     0.0000	 135.0	 1	     1.0500	     0.9500;
	19	 1	 18.84	 3.40	 0.0	 0.0	 1	     1.0000	     0.0000	 135.0	 1	     1.0500	     0.9500;
	20	 1	 4.36	 0.70	 0.0	 0.0	 1	     1.0000	     0.0000	 135.0	 1	     1.0500	     0.9500;
	21	 1	 34.71	 11.20	 0.0	 0.0	 1	     1.0000	     0.0000	 135.0	 1	     1.0500	     0.9500;
	22	 2	 0.00	 0.00	 0.0	 0.0	 1	     1.0000	     0.0000	 135.0	 1	     1.1000	     0.9500;
	23	 2	 6.35	 1.60	 0.0	 0.0	 1	     1.0000	     0.0000	 135.0	 1	     1.1000	     0.9500;
	24	 1	 17.25	 6.70	 0.0	 25.0	 1	     1.0000	     0.0000	 135.0	 1	     1.0500	     0.9500;
	25	 1	 0.00	 0.00	 0.0	 0.0	 1	     1.0000	     0.0000	 135.0	 1	     1.0500	     0.9500;
	26	 1	 6.94	 2.30	 0.0	 0.0	 1	     1.0000	     0.0000	 135.0	 1	     1.0500	     0.9500;
	27	 2	 0.00	 0.00	 0.0	 0.0	 1	     1.0000	     0.0000	 135.0	 1	     1.1000	     0.9500;
	28	 1	 0.00	 0.00	 0.0	 0.0	 1	     1.0000	     0.0000	 135.0	 1	     1.0500	     0.9500;
	29	 1	 4.76	 0.90	 0.0	 0.0	 1	     1.0000	     0.0000	 135.0	 1	     1.0500	     0.9500;
	30	 1	 21.02	 1.90	 0.0	 0.0	 1	     1.0000	     0.0000	 135.0	 1	     1.0500	     0.9500;
];

%% generator data
%	bus	Pg	Qg	Qmax	Qmin	Vg	mBase	status	Pmax	Pmin	Pc1	Pc2	Qc1min	Qc1max	Qc2min	Qc2max	ramp_agc	ramp_10	ramp_30	ramp_q	apf
mpc.gen = [
	1	 51.0	 -100.0	 250.0	 -120.0	 1.0	 100.0	 1	 56	 25.0	 0.0	 0.0	 0.0	 0.0	 0.0	 0.0	 0.0	 0.0	 0.0	 0.0	 0.0; % COW
	2	 132.0	 181.0	 217.2	 -217.2	 1.0	 100.0	 1	 205	 10.0	 0.0	 0.0	 0.0	 0.0	 0.0	 0.0	 0.0	 0.0	 0.0	 0.0	 0.0; % NG
	5	 267.0	 -17.0	 147.0	 -147.0	 1.0	 100.0	 1	 294	 7.5	 0.0	 0.0	 0.0	 0.0	 0.0	 0.0	 0.0	 0.0	 0.0	 0.0	 0.0; % NG
	8	 98.0	 54.0	 71.0	 -71.0	 1.0	 100.0	 1	 142	 5.0	 0.0	 0.0	 0.0	 0.0	 0.0	 0.0	 0.0	 0.0	 0.0	 0.0	 0.0; % NG
	11	 15.0	 11.0	 50.0	 -13.2	 1.0	 100.0	 1	 23	 5.0	 0.0	 0.0	 0.0	 0.0	 0.0	 0.0	 0.0	 0.0	 0.0	 0.0	 0.0; % NG
	13	 15.0	 14.0	 60.0	 -31.0	 1.0	 100.0	 1	 62	 6.0	 0.0	 0.0	 0.0	 0.0	 0.0	 0.0	 0.0	 0.0	 0.0	 0.0	 0.0; % COW
];

%% generator cost data
%	2	startup	shutdown	n	c(n-1)	...	c0
mpc.gencost = [
	2	 0.0	 0.0	 3	   0.000000	   0.909372	   0.000000; % COW
	2	 0.0	 0.0	 3	   0.000000	   0.991073	   0.000000; % NG
	2	 0.0	 0.0	 3	   0.000000	   1.088808	   0.000000; % NG
	2	 0.0	 0.0	 3	   0.000000	   0.821014	   0.000000; % NG
	2	 0.0	 0.0	 3	   0.000000	   1.129631	   0.000000; % NG
	2	 0.0	 0.0	 3	   0.000000	   0.787522	   0.000000; % COW
];

%% branch data
%	fbus	tbus	r	x	b	rateA	rateB	rateC	ratio	angle	status	angmin	angmax
mpc.branch = [
	1	 2	 0.0192	 0.0575	 0.0264	 130.0	 130.0	 130.0	 0.0	 0.0	 1	 -30.0	 30.0;
	1	 3	 0.0452	 0.1852	 0.0204	 130.0	 130.0	 130.0	 0.0	 0.0	 1	 -30.0	 30.0;
	2	 4	 0.057	 0.1737	 0.0184	 65.0	 65.0	 65.0	 0.0	 0.0	 1	 -30.0	 30.0;
	3	 4	 0.0132	 0.0379	 0.0042	 130.0	 130.0	 130.0	 0.0	 0.0	 1	 -30.0	 30.0;
	2	 5	 0.0472	 0.1983	 0.0209	 130.0	 130.0	 130.0	 0.0	 0.0	 1	 -30.0	 30.0;
	2	 6	 0.0581	 0.1763	 0.0187	 65.0	 65.0	 65.0	 0.0	 0.0	 1	 -30.0	 30.0;
	4	 6	 0.0119	 0.0414	 0.0045	 90.0	 90.0	 90.0	 0.0	 0.0	 1	 -30.0	 30.0;
	5	 7	 0.046	 0.116	 0.0102	 70.0	 70.0	 70.0	 0.0	 0.0	 1	 -30.0	 30.0;
	6	 7	 0.0267	 0.082	 0.0085	 130.0	 130.0	 130.0	 0.0	 0.0	 1	 -30.0	 30.0;
	6	 8	 0.012	 0.042	 0.0045	 32.0	 32.0	 32.0	 0.0	 0.0	 1	 -30.0	 30.0;
	6	 9	 0.0	 0.208	 0.0	 65.0	 65.0	 65.0	 0.0	 0.0	 1	 -30.0	 30.0;
	6	 10	 0.0	 0.556	 0.0	 32.0	 32.0	 32.0	 0.0	 0.0	 1	 -30.0	 30.0;
	9	 11	 0.0	 0.208	 0.0	 65.0	 65.0	 65.0	 0.0	 0.0	 1	 -30.0	 30.0;
	9	 10	 0.0	 0.11	 0.0	 65.0	 65.0	 65.0	 0.0	 0.0	 1	 -30.0	 30.0;
	4	 12	 0.0	 0.256	 0.0	 65.0	 65.0	 65.0	 0.0	 0.0	 1	 -30.0	 30.0;
	12	 13	 0.0	 0.14	 0.0	 65.0	 65.0	 65.0	 0.0	 0.0	 1	 -30.0	 30.0;
	12	 14	 0.1231	 0.2559	 0.0	 32.0	 32.0	 32.0	 0.0	 0.0	 1	 -30.0	 30.0;
	12	 15	 0.0662	 0.1304	 0.0	 32.0	 32.0	 32.0	 0.0	 0.0	 1	 -30.0	 30.0;
	12	 16	 0.0945	 0.1987	 0.0	 32.0	 32.0	 32.0	 0.0	 0.0	 1	 -30.0	 30.0;
	14	 15	 0.221	 0.1997	 0.0	 16.0	 16.0	 16.0	 0.0	 0.0	 1	 -30.0	 30.0;
	16	 17	 0.0824	 0.1932	 0.0	 16.0	 16.0	 16.0	 0.0	 0.0	 1	 -30.0	 30.0;
	15	 18	 0.107	 0.2185	 0.0	 16.0	 16.0	 16.0	 0.0	 0.0	 1	 -30.0	 30.0;
	18	 19	 0.0639	 0.1292	 0.0	 16.0	 16.0	 16.0	 0.0	 0.0	 1	 -30.0	 30.0;
	19	 20	 0.034	 0.068	 0.0	 32.0	 32.0	 32.0	 0.0	 0.0	 1	 -30.0	 30.0;
	10	 20	 0.0936	 0.209	 0.0	 32.0	 32.0	 32.0	 0.0	 0.0	 1	 -30.0	 30.0;
	10	 17	 0.0324	 0.0845	 0.0	 32.0	 32.0	 32.0	 0.0	 0.0	 1	 -30.0	 30.0;
	10	 21	 0.0348	 0.0749	 0.0	 32.0	 32.0	 32.0	 0.0	 0.0	 1	 -30.0	 30.0;
	10	 22	 0.0727	 0.1499	 0.0	 32.0	 32.0	 32.0	 0.0	 0.0	 1	 -30.0	 30.0;
	21	 22	 0.0116	 0.0236	 0.0	 32.0	 32.0	 32.0	 0.0	 0.0	 1	 -30.0	 30.0;
	15	 23	 0.1	 0.202	 0.0	 16.0	 16.0	 16.0	 0.0	 0.0	 1	 -30.0	 30.0;
	22	 24	 0.115	 0.179	 0.0	 16.0	 16.0	 16.0	 0.0	 0.0	 1	 -30.0	 30.0;
	23	 24	 0.132	 0.27	 0.0	 16.0	 16.0	 16.0	 0.0	 0.0	 1	 -30.0	 30.0;
	24	 25	 0.1885	 0.3292	 0.0	 16.0	 16.0	 16.0	 0.0	 0.0	 1	 -30.0	 30.0;
	25	 26	 0.2544	 0.38	 0.0	 16.0	 16.0	 16.0	 0.0	 0.0	 1	 -30.0	 30.0;
	25	 27	 0.1093	 0.2087	 0.0	 16.0	 16.0	 16.0	 0.0	 0.0	 1	 -30.0	 30.0;
	28	 27	 0.0	 0.396	 0.0	 65.0	 65.0	 65.0	 0.0	 0.0	 1	 -30.0	 30.0;
	27	 29	 0.2198	 0.4153	 0.0	 16.0	 16.0	 16.0	 0.0	 0.0	 1	 -30.0	 30.0;
	27	 30	 0.3202	 0.6027	 0.0	 16.0	 16.0	 16.0	 0.0	 0.0	 1	 -30.0	 30.0;
	29	 30	 0.2399	 0.4533	 0.0	 16.0	 16.0	 16.0	 0.0	 0.0	 1	 -30.0	 30.0;
	8	 28	 0.0636	 0.2	 0.0214	 32.0	 32.0	 32.0	 0.0	 0.0	 1	 -30.0	 30.0;
	6	 28	 0.0169	 0.0599	 0.0065	 32.0	 32.0	 32.0	 0.0	 0.0	 1	 -30.0	 30.0;
];

% INFO    : === Translation Options ===
% INFO    : Load Model:                  from file ./nesta_case30_as.dat.sol
% INFO    : Gen Active Capacity Model:   stat
% INFO    : Gen Reactive Capacity Model: al50ag
% INFO    : Gen Active Cost Model:       stat
% INFO    : 
% INFO    : === Load Replacement Notes ===
% INFO    : Bus 1	: Pd=0.0, Qd=0.0 -> Pd=0.00, Qd=0.00
% INFO    : Bus 2	: Pd=21.7, Qd=12.7 -> Pd=43.03, Qd=12.70
% INFO    : Bus 3	: Pd=2.4, Qd=1.2 -> Pd=4.76, Qd=1.20
% INFO    : Bus 4	: Pd=7.6, Qd=1.6 -> Pd=15.07, Qd=1.60
% INFO    : Bus 5	: Pd=94.2, Qd=19.0 -> Pd=186.81, Qd=19.00
% INFO    : Bus 6	: Pd=0.0, Qd=0.0 -> Pd=0.00, Qd=0.00
% INFO    : Bus 7	: Pd=22.8, Qd=10.9 -> Pd=45.22, Qd=10.90
% INFO    : Bus 8	: Pd=30.0, Qd=30.0 -> Pd=59.50, Qd=30.00
% INFO    : Bus 9	: Pd=0.0, Qd=0.0 -> Pd=0.00, Qd=0.00
% INFO    : Bus 10	: Pd=5.8, Qd=2.0 -> Pd=11.50, Qd=2.00
% INFO    : Bus 11	: Pd=0.0, Qd=0.0 -> Pd=0.00, Qd=0.00
% INFO    : Bus 12	: Pd=11.2, Qd=7.5 -> Pd=22.21, Qd=7.50
% INFO    : Bus 13	: Pd=0.0, Qd=0.0 -> Pd=0.00, Qd=0.00
% INFO    : Bus 14	: Pd=6.2, Qd=1.6 -> Pd=12.30, Qd=1.60
% INFO    : Bus 15	: Pd=8.2, Qd=2.5 -> Pd=16.26, Qd=2.50
% INFO    : Bus 16	: Pd=3.5, Qd=1.8 -> Pd=6.94, Qd=1.80
% INFO    : Bus 17	: Pd=9.0, Qd=5.8 -> Pd=17.85, Qd=5.80
% INFO    : Bus 18	: Pd=3.2, Qd=0.9 -> Pd=6.35, Qd=0.90
% INFO    : Bus 19	: Pd=9.5, Qd=3.4 -> Pd=18.84, Qd=3.40
% INFO    : Bus 20	: Pd=2.2, Qd=0.7 -> Pd=4.36, Qd=0.70
% INFO    : Bus 21	: Pd=17.5, Qd=11.2 -> Pd=34.71, Qd=11.20
% INFO    : Bus 22	: Pd=0.0, Qd=0.0 -> Pd=0.00, Qd=0.00
% INFO    : Bus 23	: Pd=3.2, Qd=1.6 -> Pd=6.35, Qd=1.60
% INFO    : Bus 24	: Pd=8.7, Qd=6.7 -> Pd=17.25, Qd=6.70
% INFO    : Bus 25	: Pd=0.0, Qd=0.0 -> Pd=0.00, Qd=0.00
% INFO    : Bus 26	: Pd=3.5, Qd=2.3 -> Pd=6.94, Qd=2.30
% INFO    : Bus 27	: Pd=0.0, Qd=0.0 -> Pd=0.00, Qd=0.00
% INFO    : Bus 28	: Pd=0.0, Qd=0.0 -> Pd=0.00, Qd=0.00
% INFO    : Bus 29	: Pd=2.4, Qd=0.9 -> Pd=4.76, Qd=0.90
% INFO    : Bus 30	: Pd=10.6, Qd=1.9 -> Pd=21.02, Qd=1.90
% INFO    : 
% INFO    : === Generator Setpoint Replacement Notes ===
% INFO    : Gen at bus 1	: Pg=23.54, Qg=0.0 -> Pg=51.0, Qg=-100.0
% INFO    : Gen at bus 2	: Pg=60.97, Qg=0.0 -> Pg=132.0, Qg=181.0
% INFO    : Gen at bus 5	: Pg=21.59, Qg=0.0 -> Pg=267.0, Qg=-17.0
% INFO    : Gen at bus 8	: Pg=26.91, Qg=0.0 -> Pg=98.0, Qg=54.0
% INFO    : Gen at bus 11	: Pg=19.2, Qg=0.0 -> Pg=15.0, Qg=11.0
% INFO    : Gen at bus 13	: Pg=37.0, Qg=0.0 -> Pg=15.0, Qg=14.0
% INFO    : 
% INFO    : === Generator Reactive Capacity Atleast Setpoint Value Notes ===
% INFO    : Gen at bus 1	: Qg -100.0, Qmin -20.0, Qmax 250.0 -> Qmin -120.0, Qmax 250.0
% INFO    : Gen at bus 2	: Qg 181.0, Qmin -20.0, Qmax 100.0 -> Qmin -217.2, Qmax 217.2
% INFO    : Gen at bus 5	: Qg -17.0, Qmin -15.0, Qmax 80.0 -> Qmin -20.4, Qmax 80.0
% INFO    : Gen at bus 8	: Qg 54.0, Qmin -15.0, Qmax 60.0 -> Qmin -64.8, Qmax 60.0
% INFO    : Gen at bus 11	: Qg 11.0, Qmin -10.0, Qmax 50.0 -> Qmin -13.2, Qmax 50.0
% INFO    : 
% INFO    : === Generator Classification Notes ===
% INFO    : COW    2   -    11.42
% INFO    : NG     4   -    88.58
% INFO    : 
% INFO    : === Generator Active Capacity Stat Model Notes ===
% INFO    : Gen at bus 1 - COW	: Pg=51.0, Pmax=200.0 -> Pmax=56   samples: 4
% INFO    : Gen at bus 2 - NG	: Pg=132.0, Pmax=80.0 -> Pmax=205   samples: 5
% INFO    : Gen at bus 5 - NG	: Pg=267.0, Pmax=50.0 -> Pmax=294   samples: 3
% INFO    : Gen at bus 8 - NG	: Pg=98.0, Pmax=35.0 -> Pmax=142   samples: 16
% INFO    : Gen at bus 11 - NG	: Pg=15.0, Pmax=30.0 -> Pmax=23   samples: 1
% INFO    : Gen at bus 13 - COW	: Pg=15.0, Pmax=40.0 -> Pmax=62   samples: 10
% INFO    : 
% INFO    : === Generator Active Capacity LB Model Notes ===
% INFO    : Gen at bus 1	: Pmin=50.0 -> Pmin=25.0 
% INFO    : Gen at bus 2	: Pmin=20.0 -> Pmin=10.0 
% INFO    : Gen at bus 5	: Pmin=15.0 -> Pmin=7.5 
% INFO    : Gen at bus 8	: Pmin=10.0 -> Pmin=5.0 
% INFO    : Gen at bus 11	: Pmin=10.0 -> Pmin=5.0 
% INFO    : Gen at bus 13	: Pmin=12.0 -> Pmin=6.0 
% INFO    : 
% INFO    : === Generator Reactive Capacity Atleast Max 50 Percent Active Model Notes ===
% INFO    : Gen at bus 5 - NG	: Pmax 294.0, Qmin -20.4, Qmax 80.0 -> Qmin -147.0, Qmax 147.0
% INFO    : Gen at bus 8 - NG	: Pmax 142.0, Qmin -64.8, Qmax 60.0 -> Qmin -71.0, Qmax 71.0
% INFO    : Gen at bus 13 - COW	: Pmax 62.0, Qmin -15.0, Qmax 60.0 -> Qmin -31.0, Qmax 60.0
% INFO    : 
% INFO    : === Generator Active Cost Stat Model Notes ===
% INFO    : Updated Generator Cost: COW - 0.0 2.0 0.00375 -> 0 0.909371692443 0
% INFO    : Updated Generator Cost: NG - 0.0 1.75 0.0175 -> 0 0.991073091598 0
% INFO    : Updated Generator Cost: NG - 0.0 1.0 0.0625 -> 0 1.0888076753 0
% INFO    : Updated Generator Cost: NG - 0.0 3.25 0.00834 -> 0 0.821013909253 0
% INFO    : Updated Generator Cost: NG - 0.0 3.0 0.025 -> 0 1.12963117424 0
% INFO    : Updated Generator Cost: COW - 0.0 3.0 0.025 -> 0 0.787521636772 0
% INFO    : 
% INFO    : === Writing Matpower Case File Notes ===
